2775142
  -OEChem-07042403213D

 17 18  0     0  0  0  0  0  0999 V2000
   -1.8173   -2.7392   -0.0004 Cl  0  0  0  0  0  0  0  0  0  0  0  0
   -0.5043    2.8395    0.0003 O   0  0  0  0  0  0  0  0  0  0  0  0
   -1.9880    1.0899    0.0003 N   0  0  0  0  0  0  0  0  0  0  0  0
   -2.2824   -0.2311    0.0001 N   0  0  0  0  0  0  0  0  0  0  0  0
    0.3958    0.6728   -0.0002 C   0  0  0  0  0  0  0  0  0  0  0  0
    0.1120   -0.6898    0.0000 C   0  0  0  0  0  0  0  0  0  0  0  0
    1.7206    1.1186   -0.0005 C   0  0  0  0  0  0  0  0  0  0  0  0
    1.1535   -1.6206    0.0004 C   0  0  0  0  0  0  0  0  0  0  0  0
   -0.7205    1.6313   -0.0002 C   0  0  0  0  0  0  0  0  0  0  0  0
   -1.3069   -1.0839    0.0001 C   0  0  0  0  0  0  0  0  0  0  0  0
    2.7603    0.1892   -0.0002 C   0  0  0  0  0  0  0  0  0  0  0  0
    2.4772   -1.1766    0.0004 C   0  0  0  0  0  0  0  0  0  0  0  0
    1.9611    2.1779   -0.0008 H   0  0  0  0  0  0  0  0  0  0  0  0
    0.9678   -2.6899    0.0008 H   0  0  0  0  0  0  0  0  0  0  0  0
    3.7920    0.5290   -0.0002 H   0  0  0  0  0  0  0  0  0  0  0  0
    3.2898   -1.8975    0.0007 H   0  0  0  0  0  0  0  0  0  0  0  0
   -2.8003    1.6985    0.0005 H   0  0  0  0  0  0  0  0  0  0  0  0
  1 10  1  0  0  0  0
  2  9  2  0  0  0  0
  3  4  1  0  0  0  0
  3  9  1  0  0  0  0
  3 17  1  0  0  0  0
  4 10  2  0  0  0  0
  5  6  1  0  0  0  0
  5  7  2  0  0  0  0
  5  9  1  0  0  0  0
  6  8  2  0  0  0  0
  6 10  1  0  0  0  0
  7 11  1  0  0  0  0
  7 13  1  0  0  0  0
  8 12  1  0  0  0  0
  8 14  1  0  0  0  0
 11 12  2  0  0  0  0
 11 15  1  0  0  0  0
 12 16  1  0  0  0  0
M  END
> <PUBCHEM_COMPOUND_CID>
2775142

> <PUBCHEM_CONFORMER_RMSD>
0.4

> <PUBCHEM_CONFORMER_DIVERSEORDER>
1

> <PUBCHEM_MMFF94_PARTIAL_CHARGES>
17
1 -0.21
10 0.57
11 -0.15
12 -0.15
13 0.15
14 0.15
15 0.15
16 0.15
17 0.37
2 -0.57
3 -0.37
4 -0.51
5 0.09
6 0.09
7 -0.15
8 -0.15
9 0.54

> <PUBCHEM_EFFECTIVE_ROTOR_COUNT>
0

> <PUBCHEM_PHARMACOPHORE_FEATURES>
5
1 2 acceptor
1 3 donor
1 4 acceptor
6 3 4 5 6 9 10 rings
6 5 6 7 8 11 12 rings

> <PUBCHEM_HEAVY_ATOM_COUNT>
12

> <PUBCHEM_ATOM_DEF_STEREO_COUNT>
0

> <PUBCHEM_ATOM_UDEF_STEREO_COUNT>
0

> <PUBCHEM_BOND_DEF_STEREO_COUNT>
0

> <PUBCHEM_BOND_UDEF_STEREO_COUNT>
0

> <PUBCHEM_ISOTOPIC_ATOM_COUNT>
0

> <PUBCHEM_COMPONENT_COUNT>
1

> <PUBCHEM_CACTVS_TAUTO_COUNT>
2

> <PUBCHEM_CONFORMER_ID>
002A586600000001

> <PUBCHEM_MMFF94_ENERGY>
34.3568

> <PUBCHEM_FEATURE_SELFOVERLAP>
25.396

> <PUBCHEM_SHAPE_FINGERPRINT>
1 1 17329427246744091804
10967382 1 18410856576840933159
12524768 44 18342181050494840703
16945 1 18338517443628489030
193761 8 16321185585621881734
20871998 184 18273216417015159143
21040471 1 18050286960229208416
2334 1 18194401323502616354
23552423 10 18260832639310898566
23559900 14 17479177463022511486
241688 4 18338516451290577474
2748010 2 18268144443064381798
5084963 1 17914607250857108400
528886 8 18411695517176956074
66348 1 18339922722378117286

> <PUBCHEM_SHAPE_MULTIPOLES>
232.99
3.37
2.76
0.6
0.26
0.74
0
-1.47
0
-0.81
0
0.02
-0.04
0

> <PUBCHEM_SHAPE_SELFOVERLAP>
500.69

> <PUBCHEM_SHAPE_VOLUME>
128.2

> <PUBCHEM_COORDINATE_TYPE>
2
5
10

$$$$
